
#======================================================================
# CRYSTAL DATA
#----------------------------------------------------------------------
data_VESTA_phase_1

_chemical_name_common                  'MFI'
_cell_length_a                         20.090000
_cell_length_b                         19.738001
_cell_length_c                         13.142000
_cell_angle_alpha                      90.000000
_cell_angle_beta                       90.000000
_cell_angle_gamma                      90.000000
_cell_volume                           5211.281980
_space_group_name_H-M_alt              'P n m a'
_space_group_IT_number                 62

loop_
_space_group_symop_operation_xyz
   'x, y, z'
   '-x, -y, -z'
   '-x+1/2t, -y, z+1/2t'
   'x+1/2t, y, -z+1/2t'
   '-x, y+1/2t, -z'
   'x, -y+1/2t, z'
   'x+1/2t, -y+1/2t, -z+1/2t'
   '-x+1/2t, y+1/2t, z+1/2t'

loop_
   _atom_site_label
   _atom_site_occupancy
   _atom_site_fract_x
   _atom_site_fract_y
   _atom_site_fract_z
   _atom_site_adp_type
   _atom_site_U_iso_or_equiv
   _atom_site_type_symbol
   O1         1.0     0.501200     0.069900     0.701800    Uiso  ? O
   O2         1.0     0.387500     0.074300     0.800800    Uiso  ? O
   O3         1.0     0.399500     0.136600     0.625100    Uiso  ? O
   O4         1.0     0.397200     0.003400     0.632600    Uiso  ? O
   O5         1.0     0.329000     0.038500     0.972200    Uiso  ? O
   O6         1.0     0.329700     0.955500     0.815500    Uiso  ? O
   O7         1.0     0.257100     0.066300     0.810600    Uiso  ? O
   O8         1.0     0.291000     0.129600     0.106000    Uiso  ? O
   O9         1.0     0.203400     0.045500     0.027500    Uiso  ? O
   O10        1.0     0.293600     0.001000     0.156400    Uiso  ? O
   O11        1.0     0.107500     0.126500     0.088300    Uiso  ? O
   O12        1.0     0.084600     0.037000     0.944300    Uiso  ? O
   O13        1.0     0.130100     0.078100     0.767000    Uiso  ? O
   O14        1.0     0.072800     0.958900     0.783200    Uiso  ? O
   O15        1.0     0.220100     0.131300     0.645600    Uiso  ? O
   O16        1.0     0.491100     0.854800     0.716900    Uiso  ? O
   O17        1.0     0.368100     0.831100     0.774300    Uiso  ? O
   O18        1.0     0.426300     0.750000     0.643100    Uiso  ? O
   O19        1.0     0.321700     0.861100     0.956100    Uiso  ? O
   O20        1.0     0.241000     0.858200     0.799000    Uiso  ? O
   O21        1.0     0.294300     0.750000     0.057900    Uiso  ? O
   O22        1.0     0.197600     0.831300     0.000300    Uiso  ? O
   O23        1.0     0.094800     0.750000     0.020500    Uiso  ? O
   O24        1.0     0.080900     0.867000     0.927500    Uiso  ? O
   O25        1.0     0.117700     0.837000     0.740600    Uiso  ? O
   O26        1.0     0.211600     0.750000     0.691300    Uiso  ? O
   T1         1.0     0.421400     0.071100     0.689800    Uiso  ? Al
   T2         1.0     0.325900     0.033600     0.850000    Uiso  ? Si
   T3         1.0     0.279200     0.053600     0.065500    Uiso  ? Si
   T4         1.0     0.124600     0.051400     0.048100    Uiso  ? Si
   T5         1.0     0.072100     0.036000     0.823300    Uiso  ? Si
   T6         1.0     0.203400     0.068700     0.719700    Uiso  ? Si
   T7         1.0     0.419500     0.827400     0.680500    Uiso  ? Si
   T8         1.0     0.315200     0.876500     0.836100    Uiso  ? Si
   T9         1.0     0.273300     0.827800     0.040200    Uiso  ? Si
   T10        1.0     0.118500     0.827900     0.018300    Uiso  ? Si
   T11        1.0     0.065700     0.879400     0.808700    Uiso  ? Si
   T12        1.0     0.194700     0.828800     0.709200    Uiso  ? Si
   H1         1.0     0.501200     0.069900     0.631800    Uiso  ? H
   H2         1.0     0.437500     0.074300     0.800800    Uiso  ? H
   H3         1.0     0.349500     0.136600     0.625100    Uiso  ? H
   H4         1.0     0.357200     0.003400     0.632600    Uiso  ? H
